Version 4
SHEET 1 904 680
WIRE 432 0 272 0
WIRE 272 32 272 0
WIRE 432 96 432 0
WIRE 368 112 272 112
WIRE 16 160 -80 160
WIRE 144 160 96 160
WIRE 208 160 144 160
WIRE -80 192 -80 160
WIRE 352 208 272 208
WIRE 144 272 144 160
WIRE -80 352 -80 272
FLAG 272 288 0
FLAG 432 176 0
FLAG -80 352 0
FLAG 144 416 0
SYMBOL npn 208 112 R0
SYMATTR InstName Q1
SYMBOL res 256 192 R0
SYMATTR InstName RE
SYMATTR Value 1k
SYMBOL res 256 16 R0
SYMATTR InstName RC
SYMATTR Value 10k
SYMBOL voltage 432 80 R0
WINDOW 123 0 0 Left 0
WINDOW 39 0 0 Left 0
SYMATTR InstName VCC
SYMATTR Value 10
SYMBOL voltage 144 320 R0
WINDOW 0 -85 66 Left 2
WINDOW 3 -85 94 Left 2
WINDOW 123 -85 122 Left 2
WINDOW 39 0 0 Left 0
SYMATTR InstName VIN
SYMATTR Value SINE(0 0.01 1000 0 0 0 1000)
SYMATTR Value2 AC .01
SYMBOL voltage -80 176 R0
WINDOW 0 -76 59 Left 2
WINDOW 3 40 55 Left 2
WINDOW 123 0 0 Left 0
WINDOW 39 0 0 Left 0
SYMATTR InstName VBB
SYMATTR Value 1
SYMBOL res 112 144 R90
WINDOW 0 0 56 VBottom 2
WINDOW 3 32 56 VTop 2
SYMATTR InstName RB
SYMATTR Value 10k
SYMBOL cap 128 272 R0
SYMATTR InstName C1
SYMATTR Value .1µ
TEXT -112 376 Left 2 !;tran .02
TEXT 328 128 Left 2 ;Vout
TEXT -160 464 Left 2 !.tran .1
